*SPEF "IEEE 1481-1998"
*DESIGN "counter"
*DATE "Mon Sep  8 20:47:21 2014"
*VENDOR "Cadence Design Systems, Inc."
*PROGRAM "Encounter"
*VERSION "14.10-p003_1"
*DESIGN_FLOW "PIN_CAP NONE" "NAME_SCOPE LOCAL"
*DIVIDER /
*DELIMITER :
*BUS_DELIMITER []
*T_UNIT 1 NS
*C_UNIT 1 PF
*R_UNIT 1 OHM
*L_UNIT 1 HENRY

// MMMC spef file for corner 'default_rc_corner'

*NAME_MAP

*1 clk__L2_N0
*2 clk__L1_N0
*3 clk
*4 rst
*5 SE
*6 scan_in
*7 count[7]
*8 count[6]
*9 count[5]
*10 count[4]
*11 count[3]
*12 count[2]
*13 count[1]
*14 count[0]
*15 n_0
*16 n_1
*17 n_2
*18 n_3
*19 n_4
*20 n_5
*21 n_6
*22 n_7
*23 n_20
*24 n_21
*25 n_22
*26 n_23
*27 n_24
*28 n_25
*29 scan_out
*30 clk__L2_I0
*31 clk__L1_I0
*32 count_reg\[0\]
*33 count_reg\[1\]
*34 count_reg\[2\]
*35 count_reg\[3\]
*36 count_reg\[4\]
*37 count_reg\[5\]
*38 count_reg\[6\]
*39 count_reg\[7\]
*40 g769
*41 g839
*42 g840
*43 g841
*44 g842
*45 g843
*46 g844
*47 g845
*48 g846
*49 g847
*50 g848
*51 g849
*52 g850
*53 g851


*PORTS

*3 I *C 0 7
*4 I *C 7 0
*7 O *C 10 15
*8 O *C 18 9
*9 O *C 18 7
*10 O *C 13 0
*11 O *C 7 0
*12 O *C 7 0
*13 O *C 0 8
*14 O *C 7 15
*5 I *C 11 0
*6 I *C 7 15
*29 O *C 10 15


*D_NET *1 0.00364193

*CONN
*I *38:CK I *C 9 7 *L 0.00021 *D SDFFRHQX1
*I *30:Y O *C 8 6 *L 0 *D CLKINVX2
*I *37:CK I *C 10 5 *L 0.00021 *D SDFFRHQX1
*I *36:CK I *C 10 4 *L 0.00021 *D SDFFRHQX1
*I *35:CK I *C 4 4 *L 0.00021 *D SDFFRHQX1
*I *34:CK I *C 3 7 *L 0.00021 *D SDFFRHQX1
*I *33:CK I *C 3 9 *L 0.00021 *D SDFFRHQX1
*I *32:CK I *C 3 10 *L 0.00021 *D SDFFRHQX1
*I *39:CK I *C 9 10 *L 0.00021 *D SDFFRHQX1

*CAP
1 *1:0 9.67053e-05
2 *1:1 0.00019323
3 *1:2 3.88742e-05
4 *1:3 0.000165054
5 *1:4 0.000116133
6 *1:5 2.8538e-05
7 *1:6 6.0293e-05
8 *1:7 0.000369308
9 *1:8 2.17816e-05
10 *38:CK 1.13371e-05
11 *1:10 3.32061e-05
12 *1:11 0.000253882
13 *1:12 3.40424e-05
14 *1:13 2.17816e-05
15 *1:14 4.00709e-05
16 *1:15 0.000181479
17 *30:Y 1.13371e-05
18 *1:17 2.10753e-05
19 *37:CK 1.58093e-05
20 *1:19 6.25389e-05
21 *1:20 0.000139581
22 *1:21 2.79401e-05
23 *1:22 7.31302e-05
24 *1:23 3.88742e-05
25 *36:CK 1.58093e-05
26 *1:25 7.31302e-05
27 *1:26 2.8538e-05
28 *1:27 3.32061e-05
29 *35:CK 1.13371e-05
30 *1:29 0.00015028
31 *1:30 0.000223065
32 *34:CK 1.68414e-05
33 *1:32 0.000119154
34 *33:CK 1.68414e-05
35 *1:34 0.000395091
36 *1:35 2.79401e-05
37 *1:36 0.000394058
38 *32:CK 1.58093e-05
39 *1:38 2.10753e-05
40 *1:39 2.79401e-05
41 *39:CK 1.58093e-05

*RES
1 *1:39 *39:CK 8
2 *1:38 *1:39 0.624914
3 *1:36 *1:38 8
4 *1:35 *32:CK 8
5 *1:34 *1:36 19.6748
6 *1:32 *1:35 0.624914
7 *1:32 *1:34 8
8 *1:30 *33:CK 8
9 *1:30 *1:32 4.99931
10 *1:29 *34:CK 8
11 *1:29 *1:30 5.62423
12 *1:27 *1:29 1.24983
13 *1:26 *35:CK 8
14 *1:25 *1:27 8
15 *1:23 *1:26 8
16 *1:22 *1:25 3.27914
17 *1:21 *36:CK 8
18 *1:20 *1:23 8
19 *1:19 *1:22 8
20 *1:17 *1:21 0.624914
21 *1:15 *1:20 6.78443
22 *1:15 *1:19 3.08383
23 *1:14 *37:CK 8
24 *1:13 *1:17 8
25 *1:12 *30:Y 8
26 *1:11 *1:15 8
27 *1:10 *1:14 1.24983
28 *1:8 *1:13 0.655828
29 *1:7 *1:12 8
30 *1:7 *1:11 12.4607
31 *1:6 *1:10 8
32 *1:5 *38:CK 8
33 *1:4 *1:8 8
34 *1:3 *1:7 5.24662
35 *1:3 *1:6 2.62331
36 *1:2 *1:5 8
37 *1:1 *1:4 6.16767
38 *1:1 *1:3 8
39 *1:0 *1:2 8
40 *1:0 *1:1 4.31737
*END

*D_NET *2 4.56366e-05

*CONN
*I *31:Y O *C 7 5 *L 0 *D CLKINVX2
*I *30:A I *C 8 5 *L 0.000801 *D CLKINVX2

*CAP
1 *31:Y 2.28183e-05
2 *30:A 2.28183e-05

*RES
1 *31:Y *30:A 1.44125
*END

*D_NET *3 0.00115106

*CONN
*P *3 I *C 0 7 *L 0
*I *31:A I *C 7 5 *L 0.000801 *D CLKINVX2

*CAP
1 *3 0.000409184
2 *3:1 0.000418128
3 *3:2 0.000116133
4 *3:3 0.000128862
5 *3:4 3.88742e-05
6 *3:5 2.8538e-05
7 *31:A 1.13371e-05

*RES
1 *3:5 *31:A 8
2 *3:4 *3:5 8
3 *3:3 *3:4 8
4 *3:2 *3:3 6.16767
5 *3:1 *3:2 8
6 *3 *3:1 20.9045
*END

*D_NET *4 0.00338427

*CONN
*I *32:RN I *C 4 10 *L 0.000617 *D SDFFRHQX1
*I *33:RN I *C 4 9 *L 0.000617 *D SDFFRHQX1
*I *34:RN I *C 4 7 *L 0.000617 *D SDFFRHQX1
*I *35:RN I *C 5 4 *L 0.000617 *D SDFFRHQX1
*P *4 I *C 7 0 *L 0
*I *36:RN I *C 11 4 *L 0.000617 *D SDFFRHQX1
*I *38:RN I *C 10 7 *L 0.000617 *D SDFFRHQX1
*I *37:RN I *C 11 5 *L 0.000617 *D SDFFRHQX1
*I *39:RN I *C 10 10 *L 0.000617 *D SDFFRHQX1

*CAP
1 *4:0 0.000111105
2 *4:1 0.00019752
3 *4:4 0.000111105
4 *4:5 6.52436e-05
5 *4:6 2.46899e-05
6 *4:7 6.52436e-05
7 *4:9 0.000246899
8 *4:10 0.000271589
9 *4:12 2.46899e-05
10 *4:13 0.000156585
11 *4:14 0.000365364
12 *4:15 0.00020878
13 *4:16 0.00016981
14 *4:17 2.46899e-05
15 *4 0.00016981
16 *4:19 0.000160485
17 *4:20 0.000185175
18 *4:22 6.23746e-05
19 *4:23 3.91462e-05
20 *4:24 5.00296e-05
21 *4:25 3.91462e-05
22 *4:26 6.17249e-05
23 *4:27 2.46899e-05
24 *4:28 3.76846e-05
25 *4:30 2.46899e-05
26 *4:31 0.000136444
27 *4:33 0.000136444
28 *4:34 7.47196e-05
29 *4:35 8.77143e-05
30 *4:36 3.83344e-05
31 *4:37 1.2345e-05

*RES
1 *4:37 *39:RN 8
2 *4:36 *4:37 0.629706
3 *4:35 *4:36 1.3257
4 *4:34 *4:35 3.14853
5 *4:33 *4:34 0.662848
6 *4:31 *4:33 6.29706
7 *4:30 *37:RN 8
8 *4:28 *4:31 0.662848
9 *4:27 *4:30 1.25941
10 *4:26 *38:RN 8
11 *4:26 *4:28 1.25941
12 *4:25 *4:27 8
13 *4:24 *4:26 1.88912
14 *4:23 *4:25 1.99428
15 *4:22 *4:24 0.662848
16 *4:20 *4:23 8
17 *4:20 *4:22 2.51882
18 *4:19 *36:RN 8
19 *4:19 *4:20 6.92677
20 *4:17 *4:19 1.25941
21 *4:16 *4 9.77088
22 *4:15 *4:17 8
23 *4:14 *4:16 8
24 *4:14 *4:15 10.6362
25 *4:13 *4:14 7.97712
26 *4:12 *4:13 8
27 *4:10 *4:12 1.25941
28 *4:10 *35:RN 8
29 *4:9 *4:10 12.5941
30 *4:7 *4:9 8
31 *4:6 *34:RN 8
32 *4:5 *4:7 3.3238
33 *4:4 *4:6 1.25941
34 *4:4 *4:5 8
35 *4:1 *4:4 4.40794
36 *4:1 *33:RN 8
37 *4:0 *32:RN 8
38 *4:0 *4:1 5.66735
*END

*D_NET *5 0.00376825

*CONN
*I *33:SE I *C 7 9 *L 0.000598 *D SDFFRHQX1
*I *34:SE I *C 7 7 *L 0.000598 *D SDFFRHQX1
*I *32:SE I *C 7 10 *L 0.000598 *D SDFFRHQX1
*I *35:SE I *C 8 4 *L 0.000598 *D SDFFRHQX1
*I *38:SE I *C 14 7 *L 0.000598 *D SDFFRHQX1
*P *5 I *C 11 0 *L 0
*I *39:SE I *C 13 10 *L 0.000598 *D SDFFRHQX1
*I *36:SE I *C 14 4 *L 0.000598 *D SDFFRHQX1
*I *37:SE I *C 14 5 *L 0.000598 *D SDFFRHQX1

*CAP
1 *5:1 0.000139345
2 *5:2 7.40698e-05
3 *5:3 0.000139345
4 *5:4 2.46899e-05
5 *5:5 6.17249e-05
6 *5:6 1.30487e-05
7 *5:8 3.91462e-05
8 *5:9 1.2345e-05
9 *5:10 1.30487e-05
10 *5:11 0.000143536
11 *5:14 0.000116786
12 *5:15 0.000135795
13 *5:17 0.000116786
14 *5:18 0.000148789
15 *5:19 0.000116786
16 *5:20 0.000111754
17 *5:21 0.000168981
18 *5:22 0.000308624
19 *5:23 0.000156585
20 *5:25 0.000209865
21 *5:26 3.70349e-05
22 *5:27 0.000175573
23 *5:28 3.76846e-05
24 *5:29 0.000160485
25 *5:30 0.000175573
26 *5:31 0.000136444
27 *5:32 0.000161134
28 *5:34 2.27407e-05
29 *5:35 0.000136444
30 *5:36 2.53397e-05
31 *5 2.27407e-05
32 *5:38 7.47196e-05
33 *5:39 7.40698e-05
34 *5:40 6.17249e-05
35 *5:41 5.21949e-05
36 *5:42 6.17249e-05
37 *5:44 5.21949e-05
38 *5:46 2.46899e-05
39 *5:47 2.46899e-05

*RES
1 *5:47 *37:SE 8
2 *5:46 *5:47 1.25941
3 *5:44 *5:46 8
4 *5:42 *36:SE 8
5 *5:41 *5:44 2.65904
6 *5:40 *39:SE 8
7 *5:39 *5:42 3.14853
8 *5:39 *5:41 8
9 *5:38 *5:40 3.14853
10 *5:36 *5:39 0.629706
11 *5:35 *5:38 0.662848
12 *5:34 *5 1.15998
13 *5:32 *5:36 0.662848
14 *5:31 *5:35 6.29706
15 *5:30 *5:34 8
16 *5:29 *38:SE 8
17 *5:29 *5:32 7.55647
18 *5:28 *5:31 0.662848
19 *5:27 *5:30 10.8807
20 *5:26 *5:29 0.629706
21 *5:26 *5:28 1.25941
22 *5:25 *5:27 8
23 *5:23 *5:26 8
24 *5:22 *5:25 10.705
25 *5:22 *35:SE 8
26 *5:21 *5:23 7.97712
27 *5:20 *5:22 5.03765
28 *5:19 *5:21 0.631522
29 *5:18 *5:20 0.662848
30 *5:17 *5:19 5.31808
31 *5:15 *5:18 6.92677
32 *5:14 *5:17 0.631522
33 *5:13 *32:SE 8
34 *5:11 *5:15 8
35 *5:11 *5:14 5.31808
36 *5:10 *5:13 8
37 *5:9 *34:SE 8
38 *5:8 *5:11 1.99428
39 *5:6 *5:10 0.66476
40 *5:5 *5:9 0.629706
41 *5:5 *5:8 8
42 *5:4 *33:SE 8
43 *5:3 *5:6 8
44 *5:2 *5:5 2.51882
45 *5:2 *5:4 1.25941
46 *5:1 *5:3 8.01797
47 *5:0 *5:2 8
48 *5:0 *5:1 8
*END

*D_NET *6 0.000693917

*CONN
*P *6 I *C 7 15 *L 0
*I *32:SI I *C 7 10 *L 0.000388 *D SDFFRHQX1

*CAP
1 *6 0.000222209
2 *6:1 0.000235204
3 *6:2 0.000111754
4 *6:3 0.000111754
5 *6:4 1.29947e-05

*RES
1 *6:4 *32:SI 8
2 *6:3 *6:4 0.662848
3 *6:2 *6:3 5.03765
4 *6:1 *6:2 0.662848
5 *6 *6:1 11.3347
*END

*D_NET *7 0.00090432

*CONN
*P *7 O *C 10 15 *L 0
*P *29 O *C 10 15 *L 0
*I *41:A I *C 10 12 *L 0.000211 *D XNOR2X1
*I *39:Q O *C 9 10 *L 0 *D SDFFRHQX1

*CAP
1 *7:1 3.91462e-05
2 *7:2 3.91462e-05
3 *7:4 0.000222209
4 *7:5 0.000308624
5 *7:7 8.64148e-05
6 *7:8 0.00010439
7 *7:9 0.00010439

*RES
1 *7:10 *39:Q 8
2 *7:9 *7:10 8
3 *7:8 *7:9 5.31808
4 *7:7 *7:8 8
5 *7:5 *7:7 4.40794
6 *7:5 *41:A 8
7 *7:4 *7:5 11.3347
8 *7:2 *7:4 8
9 *7:1 *29 8
10 *7:1 *7:2 1.99428
11 *7 *7:1 8
*END

*D_NET *8 0.00169407

*CONN
*I *43:B I *C 15 11 *L 0.000392 *D NAND2BX1
*P *8 O *C 18 9 *L 0
*I *39:SI I *C 13 10 *L 0.000388 *D SDFFRHQX1
*I *42:A I *C 11 9 *L 0.000211 *D XNOR2X1
*I *38:Q O *C 9 6 *L 0 *D SDFFRHQX1

*CAP
1 *8:0 0.000117439
2 *8:1 0.000221828
3 *8:2 6.17249e-05
4 *8:3 3.70349e-05
5 *8:4 0.00010439
6 *8:5 6.17249e-05
7 *8:6 3.70349e-05
8 *8:7 7.40698e-05
9 *8:8 8.10014e-05
10 *8:10 1.2345e-05
11 *8:11 6.17249e-05
12 *8 8.10014e-05
13 *8:14 0.000143536
14 *8:15 0.000143536
15 *8:16 3.70349e-05
16 *8:17 0.00012345
17 *8:19 8.64148e-05
18 *8:20 0.00010439
19 *8:21 0.00010439

*RES
1 *8:22 *38:Q 8
2 *8:21 *8:22 8
3 *8:20 *8:21 5.31808
4 *8:19 *8:20 8
5 *8:17 *8:19 4.40794
6 *8:17 *42:A 8
7 *8:16 *8:17 1.88912
8 *8:15 *8:16 8
9 *8:14 *8:15 7.31236
10 *8:11 *8:14 8
11 *8:10 *39:SI 8
12 *8:8 *8 4.57426
13 *8:7 *8:11 3.14853
14 *8:7 *8:10 0.629706
15 *8:6 *43:B 8
16 *8:5 *8:8 8
17 *8:4 *8:7 8
18 *8:3 *8:6 1.88912
19 *8:2 *8:5 3.14853
20 *8:1 *8:4 5.31808
21 *8:1 *8:3 8
22 *8:0 *8:2 8
23 *8:0 *8:1 5.98284
*END

*D_NET *9 0.00179736

*CONN
*P *9 O *C 18 7 *L 0
*I *45:B I *C 15 8 *L 0.000392 *D NAND2BX1
*I *38:SI I *C 13 7 *L 0.000388 *D SDFFRHQX1
*I *37:Q O *C 10 6 *L 0 *D SDFFRHQX1
*I *44:A I *C 9 5 *L 0.000211 *D XNOR2X1

*CAP
1 *9:0 0.000116786
2 *9:1 0.000106446
3 *9:2 0.000182682
4 *9 9.40502e-05
5 *9:4 0.000135795
6 *9:5 0.00010439
7 *9:6 0.000135795
8 *9:7 2.46899e-05
9 *9:8 3.84937e-05
10 *9:10 2.46899e-05
11 *9:11 0.000168981
12 *9:13 0.000168981
13 *9:14 5.15425e-05
14 *9:15 3.91462e-05
15 *9:16 8.64148e-05
16 *9:17 9.87598e-05
17 *9:18 1.2345e-05
18 *9:20 9.13411e-05
19 *9:21 9.13411e-05
20 *9:22 1.2345e-05
21 *9:23 1.2345e-05

*RES
1 *9:23 *44:A 8
2 *9:22 *9:23 0.629706
3 *9:21 *9:22 8
4 *9:20 *9:21 4.65332
5 *9:18 *9:20 8
6 *9:17 *37:Q 8
7 *9:17 *9:18 0.629706
8 *9:16 *9:17 4.40794
9 *9:15 *9:16 8
10 *9:14 *9:15 1.99428
11 *9:13 *9:14 0.631522
12 *9:11 *9:13 7.97712
13 *9:10 *38:SI 8
14 *9:8 *9:11 0.631522
15 *9:7 *9:10 1.25941
16 *9:6 *45:B 8
17 *9:5 *9:8 1.32952
18 *9:5 *9:7 8
19 *9:4 *9:6 6.92677
20 *9:2 *9:5 3.98856
21 *9:2 *9:4 8
22 *9:1 *9 5.23902
23 *9:0 *9:2 5.31808
24 *9:0 *9:1 0.631522
*END

*D_NET *10 0.00163873

*CONN
*P *10 O *C 13 0 *L 0
*I *47:B I *C 14 4 *L 0.000392 *D NAND2BX1
*I *36:Q O *C 9 3 *L 0 *D SDFFRHQX1
*I *37:SI I *C 14 5 *L 0.000388 *D SDFFRHQX1
*I *46:A I *C 14 7 *L 0.000211 *D XNOR2X1

*CAP
1 *10:0 2.46899e-05
2 *10:1 0.000326218
3 *10:2 3.76846e-05
4 *10:3 7.82923e-05
5 *10:4 0.000247926
6 *10:5 0.000208565
7 *10:6 1.2345e-05
8 *10:7 1.2345e-05
9 *10 0.00019557
10 *10:9 0.000111105
11 *10:10 1.2345e-05
12 *10:11 0.000111754
13 *10:14 2.53397e-05
14 *10:15 0.00012345
15 *10:16 0.000111105

*RES
1 *10:16 *46:A 8
2 *10:15 *37:SI 8
3 *10:15 *10:16 5.66735
4 *10:14 *10:15 0.629706
5 *10:11 *10:14 0.662848
6 *10:10 *36:Q 8
7 *10:9 *47:B 8
8 *10:9 *10:11 5.03765
9 *10:7 *10:10 0.629706
10 *10:6 *10:9 0.629706
11 *10:5 *10 9.97587
12 *10:4 *10:7 8
13 *10:3 *10:6 8
14 *10:2 *10:5 0.662848
15 *10:1 *10:4 12.6304
16 *10:1 *10:3 3.98856
17 *10:0 *10:2 1.25941
18 *10:0 *10:1 8
*END

*D_NET *11 0.00282953

*CONN
*P *11 O *C 7 0 *L 0
*I *49:B I *C 8 7 *L 0.000392 *D NAND2BX1
*I *35:Q O *C 4 3 *L 0 *D SDFFRHQX1
*I *36:SI I *C 14 3 *L 0.000388 *D SDFFRHQX1
*I *48:A I *C 3 5 *L 0.000211 *D XNOR2X1

*CAP
1 *11:0 2.46899e-05
2 *11:1 7.82923e-05
3 *11:2 3.76846e-05
4 *11:3 7.82923e-05
5 *11:4 3.84937e-05
6 *11:5 0.000124099
7 *11:6 0.00017283
8 *11:7 3.84937e-05
9 *11:8 0.000155932
10 *11:9 0.000124099
11 *11:10 0.000185824
12 *11:11 0.000155932
13 *11:12 0.000155932
14 *11:13 4.80804e-05
15 *11:14 0.000124099
16 *11:15 0.000155932
17 *11:16 7.76399e-05
18 *11 3.50857e-05
19 *11:18 0.000111105
20 *11:19 0.000195078
21 *11:20 6.52436e-05
22 *11:22 0.000182682
23 *11:23 6.17249e-05
24 *11:24 3.70349e-05
25 *11:25 6.17249e-05
26 *11:26 3.70349e-05
27 *35:Q 4.68194e-05
28 *11:29 4.68194e-05
29 *11:30 8.64148e-05
30 *11:31 8.64148e-05

*RES
1 *11:31 *48:A 8
2 *11:30 *11:31 4.40794
3 *11:29 *11:30 8
4 *35:Q *11:29 2.90151
5 *11:26 *36:SI 8
6 *11:25 *35:Q 8
7 *11:24 *11:26 1.88912
8 *11:23 *11:25 3.14853
9 *11:22 *11:24 8
10 *11:20 *11:23 8
11 *11:19 *11:22 9.30664
12 *11:18 *49:B 8
13 *11:16 *11:20 3.3238
14 *11:15 *11:19 0.631522
15 *11:14 *11:18 5.66735
16 *11:13 *11 1.78969
17 *11:12 *11:16 0.631522
18 *11:11 *11:15 7.31236
19 *11:10 *11:14 0.662848
20 *11:9 *11:13 0.662848
21 *11:8 *11:12 7.31236
22 *11:7 *11:11 0.631522
23 *11:6 *11:10 8.81588
24 *11:5 *11:9 5.66735
25 *11:4 *11:8 0.631522
26 *11:3 *11:7 1.32952
27 *11:3 *11:6 8
28 *11:2 *11:5 0.662848
29 *11:1 *11:4 1.32952
30 *11:1 *11:3 2.65904
31 *11:0 *11:2 1.25941
32 *11:0 *11:1 8
*END

*D_NET *12 0.00169115

*CONN
*P *12 O *C 7 0 *L 0
*I *35:SI I *C 8 4 *L 0.000388 *D SDFFRHQX1
*I *50:A I *C 4 5 *L 0.000211 *D XNOR2X1
*I *51:B I *C 9 4 *L 0.000392 *D NAND2BX1
*I *34:Q O *C 3 6 *L 0 *D SDFFRHQX1

*CAP
1 *12:0 0.00022026
2 *12:1 0.000234877
3 *12 0.00022026
4 *12:3 0.000130487
5 *12:4 0.000143536
6 *12:5 3.91462e-05
7 *12:7 9.87598e-05
8 *12:8 1.2345e-05
9 *12:10 0.000111105
10 *12:11 1.2345e-05
11 *12:12 1.2345e-05
12 *12:15 0.00010439
13 *12:16 0.00010439
14 *12:17 0.00012345
15 *12:18 0.00012345

*RES
1 *12:18 *34:Q 8
2 *12:17 *12:18 6.29706
3 *12:16 *12:17 8
4 *12:15 *12:16 5.31808
5 *12:12 *12:15 8
6 *12:11 *51:B 8
7 *12:10 *50:A 8
8 *12:10 *12:12 0.629706
9 *12:8 *12:11 0.629706
10 *12:7 *12:10 5.03765
11 *12:6 *35:SI 8
12 *12:5 *12:8 8
13 *12:4 *12:7 8
14 *12:3 *12:6 8
15 *12:3 *12:5 1.99428
16 *12:1 *12:4 7.31236
17 *12:1 *12:3 4.65332
18 *12:0 *12 11.2353
19 *12:0 *12:1 8
*END

*D_NET *13 0.00178772

*CONN
*I *33:Q O *C 3 9 *L 0 *D SDFFRHQX1
*P *13 O *C 0 8 *L 0
*I *52:B I *C 9 9 *L 0.000419 *D XOR2XL
*I *53:A I *C 6 5 *L 0.00039 *D NAND2X1
*I *34:SI I *C 7 7 *L 0.000388 *D SDFFRHQX1

*CAP
1 *13:0 0.000128753
2 *33:Q 0.000128753
3 *13:2 3.70349e-05
4 *13:3 1.2345e-05
5 *13:4 3.70349e-05
6 *13:5 1.2345e-05
7 *13:6 2.44664e-05
8 *13:7 0.000182682
9 *13 2.44664e-05
10 *13:9 0.000365364
11 *13:10 0.000182682
12 *13:11 0.000111105
13 *13:12 2.46899e-05
14 *13:13 0.00019752
15 *13:14 2.46899e-05
16 *13:15 9.13411e-05
17 *13:16 8.64148e-05
18 *13:18 9.13411e-05
19 *13:20 1.2345e-05
20 *13:21 1.2345e-05

*RES
1 *13:21 *34:SI 8
2 *13:20 *13:21 0.629706
3 *13:18 *13:20 8
4 *13:16 *53:A 8
5 *13:15 *13:18 4.65332
6 *13:14 *52:B 8
7 *13:13 *13:16 4.40794
8 *13:13 *13:15 8
9 *13:12 *13:14 1.25941
10 *13:11 *13:13 5.66735
11 *13:10 *13:12 8
12 *13:9 *13:11 8
13 *13:9 *13:10 9.30664
14 *13:7 *13:9 9.30664
15 *13:6 *13 1.24643
16 *13:5 *13:7 8
17 *13:4 *13:6 8
18 *13:3 *13:5 0.629706
19 *13:2 *13:4 1.88912
20 *33:Q *13:3 8
21 *13:0 *13:2 8
22 *13:0 *33:Q 7.97916
*END

*D_NET *14 0.00249708

*CONN
*I *40:A I *C 7 12 *L 0.000395 *D INVX1
*P *14 O *C 7 15 *L 0
*I *32:Q O *C 3 10 *L 0 *D SDFFRHQX1
*I *33:SI I *C 7 9 *L 0.000388 *D SDFFRHQX1
*I *52:A I *C 8 8 *L 0.000211 *D XOR2XL
*I *53:B I *C 6 5 *L 0.000392 *D NAND2X1

*CAP
1 *14:0 3.76846e-05
2 *14:1 0.00014814
3 *14:2 0.000173479
4 *40:A 0.000222392
5 *14:4 0.000149439
6 *14:5 0.000173479
7 *14:6 0.000222392
8 *14:7 8.77143e-05
9 *14:8 5.00296e-05
10 *14:9 8.64148e-05
11 *14:10 7.40698e-05
12 *14 3.70349e-05
13 *14:12 8.64148e-05
14 *14:13 6.52436e-05
15 *14:14 1.2345e-05
16 *14:16 6.52436e-05
17 *14:18 4.93799e-05
18 *14:19 0.00019752
19 *14:21 0.00014814
20 *14:22 0.000143536
21 *14:23 0.000143536
22 *14:24 6.17249e-05
23 *14:25 6.17249e-05

*RES
1 *14:25 *53:B 8
2 *14:24 *14:25 3.14853
3 *14:23 *14:24 8
4 *14:22 *14:23 7.31236
5 *14:21 *14:22 8
6 *14:19 *14:21 7.55647
7 *14:19 *52:A 8
8 *14:18 *14:19 2.51882
9 *14:16 *14:18 8
10 *14:14 *33:SI 8
11 *14:13 *14:16 3.3238
12 *14:12 *32:Q 8
13 *14:10 *14:14 0.629706
14 *14:10 *14:13 8
15 *14:9 *14:12 4.40794
16 *14:8 *14 1.88912
17 *14:7 *14:10 3.14853
18 *14:6 *14:9 8
19 *14:5 *14:8 0.662848
20 *14:4 *14:7 1.3257
21 *40:A *14:6 13.7822
22 *14:2 *14:5 8.18618
23 *14:1 *14:4 6.29706
24 *14:1 *40:A 8
25 *14:0 *14:2 0.662848
26 *14:0 *14:1 1.25941
*END

*D_NET *15 0.00074405

*CONN
*I *50:B I *C 5 5 *L 0.000419 *D XNOR2X1
*I *53:Y O *C 6 5 *L 0 *D NAND2X1
*I *51:AN I *C 9 4 *L 0.00021 *D NAND2BX1

*CAP
1 *15:0 5.21949e-05
2 *15:1 0.000247926
3 *15:3 0.000195731
4 *15:6 1.2345e-05
5 *15:8 2.53397e-05
6 *15:9 0.000111754
7 *15:10 9.87598e-05

*RES
1 *15:10 *51:AN 8
2 *15:9 *15:10 5.03765
3 *15:8 *15:9 0.662848
4 *15:6 *15:8 0.629706
5 *15:4 *53:Y 8
6 *15:3 *15:6 8
7 *15:2 *50:B 8
8 *15:1 *15:4 8
9 *15:1 *15:3 9.9714
10 *15:0 *15:2 8
11 *15:0 *15:1 2.65904
*END

*D_NET *16 0.0012465

*CONN
*I *51:Y O *C 9 3 *L 0 *D NAND2BX1
*I *49:AN I *C 9 7 *L 0.00021 *D NAND2BX1
*I *48:B I *C 4 5 *L 0.000419 *D XNOR2X1

*CAP
1 *16:0 2.60974e-05
2 *16:1 0.00012345
3 *16:2 3.84937e-05
4 *16:3 8.70645e-05
5 *16:4 4.93799e-05
6 *16:5 0.000286419
7 *16:6 9.94095e-05
8 *16:8 0.000286419
9 *16:9 8.64148e-05
10 *16:10 3.84937e-05
11 *16:12 2.60974e-05
12 *16:13 4.93799e-05
13 *16:14 4.93799e-05

*RES
1 *16:14 *48:B 8
2 *16:13 *16:14 2.51882
3 *16:12 *16:13 8
4 *16:10 *16:12 1.32952
5 *16:9 *49:AN 8
6 *16:8 *16:10 0.631522
7 *16:6 *16:9 4.40794
8 *16:5 *16:8 13.96
9 *16:4 *51:Y 8
10 *16:3 *16:6 0.662848
11 *16:2 *16:5 0.631522
12 *16:1 *16:4 2.51882
13 *16:1 *16:3 3.77824
14 *16:0 *16:2 1.32952
15 *16:0 *16:1 8
*END

*D_NET *17 0.00127943

*CONN
*I *46:B I *C 15 7 *L 0.000419 *D XNOR2X1
*I *49:Y O *C 9 6 *L 0 *D NAND2BX1
*I *47:AN I *C 15 4 *L 0.00021 *D NAND2BX1

*CAP
1 *17:0 1.2345e-05
2 *17:1 9.87598e-05
3 *17:3 0.00040451
4 *17:4 9.94095e-05
5 *17:5 0.00040451
6 *17:6 0.000136444
7 *17:8 0.00012345

*RES
1 *17:8 *47:AN 8
2 *17:7 *49:Y 8
3 *17:6 *17:8 6.29706
4 *17:5 *17:7 8
5 *17:4 *17:6 0.662848
6 *17:3 *17:5 20.6076
7 *17:1 *17:4 4.40794
8 *17:1 *17:3 8
9 *17:0 *46:B 8
10 *17:0 *17:1 0.629706
*END

*D_NET *18 0.00159909

*CONN
*I *47:Y O *C 15 3 *L 0 *D NAND2BX1
*I *44:B I *C 9 5 *L 0.000419 *D XNOR2X1
*I *45:AN I *C 15 9 *L 0.00021 *D NAND2BX1

*CAP
1 *18:0 3.84937e-05
2 *18:1 6.52436e-05
3 *18:2 0.000103737
4 *18:3 3.91462e-05
5 *18:4 4.93799e-05
6 *18:5 0.000103737
7 *18:6 2.46899e-05
8 *18:7 4.93799e-05
9 *18:8 0.000234225
10 *18:9 3.76846e-05
11 *18:11 0.000221828
12 *18:12 0.000161134
13 *18:13 4.93799e-05
14 *18:14 0.000161134
15 *18:15 4.93799e-05
16 *18:16 0.000111754
17 *18:18 9.87598e-05

*RES
1 *18:18 *45:AN 8
2 *18:16 *18:18 5.03765
3 *18:15 *44:B 8
4 *18:14 *18:16 0.662848
5 *18:13 *18:15 2.51882
6 *18:12 *18:14 7.55647
7 *18:11 *18:13 8
8 *18:9 *18:12 0.662848
9 *18:8 *18:11 11.3009
10 *18:7 *47:Y 8
11 *18:6 *18:9 1.25941
12 *18:5 *18:8 0.631522
13 *18:4 *18:7 2.51882
14 *18:3 *18:6 8
15 *18:2 *18:5 4.65332
16 *18:1 *18:4 8
17 *18:1 *18:3 1.99428
18 *18:0 *18:2 0.631522
19 *18:0 *18:1 1.32952
*END

*D_NET *19 0.000691747

*CONN
*I *45:Y O *C 15 9 *L 0 *D NAND2BX1
*I *42:B I *C 12 9 *L 0.000419 *D XNOR2X1
*I *43:AN I *C 15 10 *L 0.00021 *D NAND2BX1

*CAP
1 *19:0 0.00020878
2 *19:1 3.70349e-05
3 *19:2 0.00020878
4 *19:3 6.30243e-05
5 *19:6 0.000100059
6 *19:8 7.40698e-05

*RES
1 *19:8 *43:AN 8
2 *19:6 *19:8 3.77824
3 *19:5 *42:B 8
4 *19:3 *19:6 1.3257
5 *19:2 *19:5 8
6 *19:1 *45:Y 8
7 *19:1 *19:3 1.88912
8 *19:0 *19:2 10.6362
9 *19:0 *19:1 8
*END

*D_NET *20 0.000667274

*CONN
*I *43:Y O *C 15 10 *L 0 *D NAND2BX1
*I *41:B I *C 11 12 *L 0.000419 *D XNOR2X1

*CAP
1 *20:2 0.000234877
2 *20:3 0.000234877
3 *20:4 9.87598e-05
4 *20:5 9.87598e-05

*RES
1 *20:5 *41:B 8
2 *20:4 *20:5 5.03765
3 *20:3 *20:4 8
4 *20:2 *20:3 11.9657
5 *20:1 *20:2 8
6 *43:Y *20:1 8
*END

*D_NET *21 0.000219649

*CONN
*I *40:Y O *C 7 13 *L 0 *D INVX1
*I *32:D I *C 6 10 *L 0.000388 *D SDFFRHQX1

*CAP
1 *40:Y 2.34097e-05
2 *21:1 2.34097e-05
3 *21:2 8.64148e-05
4 *21:3 8.64148e-05

*RES
1 *21:3 *32:D 8
2 *21:2 *21:3 4.40794
3 *21:1 *21:2 8
4 *40:Y *21:1 1.45076
*END

*D_NET *22 0.000156585

*CONN
*I *52:Y O *C 8 9 *L 0 *D XOR2XL
*I *33:D I *C 6 9 *L 0.000388 *D SDFFRHQX1

*CAP
1 *22:2 7.82923e-05
2 *22:3 7.82923e-05

*RES
1 *22:4 *33:D 8
2 *22:3 *22:4 8
3 *22:2 *22:3 3.98856
4 *22:1 *22:2 8
5 *52:Y *22:1 8
*END

*D_NET *23 0.000459902

*CONN
*I *41:Y O *C 10 12 *L 0 *D XNOR2X1
*I *39:D I *C 12 10 *L 0.000388 *D SDFFRHQX1

*CAP
1 *23:2 0.000143536
2 *23:3 0.000143536
3 *23:4 8.64148e-05
4 *23:5 8.64148e-05

*RES
1 *23:5 *39:D 8
2 *23:4 *23:5 4.40794
3 *23:3 *23:4 8
4 *23:2 *23:3 7.31236
5 *23:1 *23:2 8
6 *41:Y *23:1 8
*END

*D_NET *24 0.000459902

*CONN
*I *42:Y O *C 11 8 *L 0 *D XNOR2X1
*I *38:D I *C 13 7 *L 0.000388 *D SDFFRHQX1

*CAP
1 *24:2 0.000143536
2 *24:3 0.000143536
3 *24:4 8.64148e-05
4 *24:5 8.64148e-05

*RES
1 *24:5 *38:D 8
2 *24:4 *24:5 4.40794
3 *24:3 *24:4 8
4 *24:2 *24:3 7.31236
5 *24:1 *24:2 8
6 *42:Y *24:1 8
*END

*D_NET *25 0.000728016

*CONN
*I *44:Y O *C 8 5 *L 0 *D XNOR2X1
*I *37:D I *C 14 5 *L 0.000388 *D SDFFRHQX1

*CAP
1 *25:1 1.2345e-05
2 *25:2 1.2345e-05
3 *25:3 0.000156585
4 *25:4 0.000168981
5 *25:5 0.000195078
6 *25:6 0.000182682

*RES
1 *25:7 *37:D 8
2 *25:6 *25:7 8
3 *25:5 *25:6 9.30664
4 *25:4 *25:5 0.631522
5 *25:3 *25:4 7.97712
6 *25:2 *25:3 8
7 *25:1 *25:2 0.629706
8 *44:Y *25:1 8
*END

*D_NET *26 0.000624286

*CONN
*I *46:Y O *C 14 7 *L 0 *D XNOR2X1
*I *36:D I *C 13 4 *L 0.000388 *D SDFFRHQX1

*CAP
1 *26:1 0.000160485
2 *26:2 0.000160485
3 *26:3 6.52436e-05
4 *26:4 6.52436e-05
5 *26:5 8.64148e-05
6 *26:6 8.64148e-05

*RES
1 *26:6 *36:D 8
2 *26:5 *26:6 4.40794
3 *26:4 *26:5 8
4 *26:3 *26:4 3.3238
5 *26:2 *26:3 8
6 *26:1 *26:2 8.18618
7 *46:Y *26:1 8
*END

*D_NET *27 0.000773071

*CONN
*I *48:Y O *C 3 5 *L 0 *D XNOR2X1
*I *35:D I *C 7 4 *L 0.000388 *D SDFFRHQX1

*CAP
1 *27:2 0.000300121
2 *27:3 0.000300121
3 *27:4 8.64148e-05
4 *27:5 8.64148e-05

*RES
1 *27:5 *35:D 8
2 *27:4 *27:5 4.40794
3 *27:3 *27:4 8
4 *27:2 *27:3 15.2895
5 *27:1 *27:2 8
6 *48:Y *27:1 8
*END

*D_NET *28 0.000558661

*CONN
*I *50:Y O *C 4 5 *L 0 *D XNOR2X1
*I *34:D I *C 6 7 *L 0.000388 *D SDFFRHQX1

*CAP
1 *28:1 8.64148e-05
2 *28:2 8.64148e-05
3 *28:3 0.000143536
4 *28:4 0.000143536
5 *28:5 4.93799e-05
6 *28:6 4.93799e-05

*RES
1 *28:6 *34:D 8
2 *28:5 *28:6 2.51882
3 *28:4 *28:5 8
4 *28:3 *28:4 7.31236
5 *28:2 *28:3 8
6 *28:1 *28:2 4.40794
7 *50:Y *28:1 8
*END

